Rebranding
==========
- Continue replacing 'TurbSim' (where appropriate) and 'PyTurbSim' with 'TurbGen'
- remove all instances of 'tsrun', 'tsdata', 'tsr', etc.
- Change HomePage to lkilcher.github.io/TurbGen
- Go through docs

Misc
====

- movie to YouTube (integrate into website)
- create movie-making tool
- create conda
- Remove dependence on superaxes.py (use gridspec instead?)
- Use pytest to run tests.
