Plotting Tools
==============

|pyts| is equipped with a flexible set of plotting tools for plotting
|pyts| output and comparing it to target (input) statistics. For
example, the following code performs a |pyts| run and compares the
output (``out``) mean profile and spectrum with the targets specified
in the run (``tsr``).

.. plot:: examples/plotting.py
          :include-source:

The types of plots shown in the figure can be specified when
initializing the plotting object. For example if we change the
plotting object initialization to::

  fig = plt.summfig(axforms=[plt.axform.velprof([0,3.5]),
                             plt.axform.tkeprof(),
                             plt.axform.stressprof(),
                             plt.axform.spec(),
                             plt.axform.cohere(),
                             ] )

Here we have used the PyTurbSim plotting 'axes forms' objects (in the :mod:`pyts.plot.axform` module) to specify the types of plots to make.  Here we have specified a velocity profile (with axes limits from 0 to 3.5), a tke profile, a stress profile, a spectral plot and a coherence plot. This modest change produces a dramatically more informative figure:

.. plot:: examples/plotting2.py


