gTurbSim Module
===============

.. automodule:: gTurbSim
    :members:
    :undoc-members:
    :show-inheritance:
