PyTurbSim API
=============

.. toctree::
   :maxdepth: 4

   pyts
