pyTurbSim Module
================

.. automodule:: pyTurbSim
    :members:
    :undoc-members:
    :show-inheritance:
